data/opendss_case33/PVSystem.dss
! ===========================================================
! 分布式光伏系统 - 使用 PVSystem 元件
! ===========================================================

! PVSystem 特有参数说明:
! - Pmpp: 最大功率点功率 (kW)
! - kW: 当前输出功率 (kW)
! - PF: 功率因数
! - eff: 效率
! - temperaturecoeff: 温度系数
! - irradiance: 辐照度 (0-1)

New PVSystem.PV_Bus10 phases=3 bus1=bus10.1.2.3 conn=wye kV=12.66 
~ Pmpp=500 kW=500 PF=1.0 eff=0.95 temperaturecoeff=-0.004 
~ irradiance=1.0 status=variable

New PVSystem.PV_Bus15 phases=3 bus1=bus15.1.2.3 conn=wye kV=12.66 
~ Pmpp=300 kW=300 PF=1.0 eff=0.95 temperaturecoeff=-0.004 
~ irradiance=1.0 status=variable

New PVSystem.PV_Bus25 phases=3 bus1=bus25.1.2.3 conn=wye kV=12.66 
~ Pmpp=400 kW=400 PF=1.0 eff=0.95 temperaturecoeff=-0.004 
~ irradiance=1.0 status=variable